  6
C2H4                                                                             A=  12.0000 B=  12.0000 C=  12.0000 ALPHA=   1.5708 BETA=   1.5708 GAMMA=   1.5708
C       0.668203960134      0.000000000000      0.000000000000
H       1.242681614163      0.927889997821      0.000000000000
H       1.242681614163     -0.927889997821      0.000000000000
C      -0.668203960134      0.000000000000      0.000000000000
H      -1.242681614163      0.927889997821      0.000000000000
H      -1.242681614163     -0.927889997821      0.000000000000
